#
# Generated from file air.inp
# by ck2cti on Fri Oct 19 10:20:22 2007
#
# Transport data from file ../transport/gri30_tran.dat.

units(length = "cm", time = "s", quantity = "molec", act_energy = "K")


ideal_gas(name = "air",
      elements = " O  N  Ar  E",
      species = """ O  O2  O3  N  NO  NO2  N2O  N2  AR 
                    O2^-  O2^+  N2^+   E
                    N2(A)  N2(B)  N2(C)  N2(ap)  O(1D)""",
      reactions = "all",
      transport='Ion',
      options=['skip_undeclared_species', 'skip_undeclared_third_bodies'],
      initial_state=state(temperature=300.0, pressure=OneAtm))

#-------------------------------------------------------------------------------
#  Species data
#-------------------------------------------------------------------------------

species(name = "O",
    atoms = " O:1 ",
    thermo = (
       NASA( [  200.00,  1000.00], [  3.168267100E+00,  -3.279318840E-03,
                6.643063960E-06,  -6.128066240E-09,   2.112659710E-12,
                2.912225920E+04,   2.051933460E+00] ),
       NASA( [ 1000.00,  3500.00], [  2.569420780E+00,  -8.597411370E-05,
                4.194845890E-08,  -1.001777990E-11,   1.228336910E-15,
                2.921757910E+04,   4.784338640E+00] )
             ),
    transport = gas_transport(
                     geom = "atom",
                     diam =     2.75,
                     well_depth =    80.00),
    note = "L 1/90"
       )

species(name = "O2",
    atoms = " O:2 ",
    thermo = (
       NASA( [  200.00,  1000.00], [  3.782456360E+00,  -2.996734160E-03,
                9.847302010E-06,  -9.681295090E-09,   3.243728370E-12,
               -1.063943560E+03,   3.657675730E+00] ),
       NASA( [ 1000.00,  3500.00], [  3.282537840E+00,   1.483087540E-03,
               -7.579666690E-07,   2.094705550E-10,  -2.167177940E-14,
               -1.088457720E+03,   5.453231290E+00] )
             ),
    transport = gas_transport(
                     geom = "linear",
                     diam =     3.46,
                     well_depth =   107.40,
                     polar =     1.60,
                     rot_relax =     3.80),
    note = "TPIS89"
       )

species(name = "N",
    atoms = " N:1 ",
    thermo = (
       NASA( [  200.00,  1000.00], [  2.500000000E+00,   0.000000000E+00,
                0.000000000E+00,   0.000000000E+00,   0.000000000E+00,
                5.610463700E+04,   4.193908700E+00] ),
       NASA( [ 1000.00,  6000.00], [  2.415942900E+00,   1.748906500E-04,
               -1.190236900E-07,   3.022624500E-11,  -2.036098200E-15,
                5.613377300E+04,   4.649609600E+00] )
             ),
    transport = gas_transport(
                     geom = "atom",
                     diam =     3.30,
                     well_depth =    71.40),
    note = "L 6/88"
       )

species(name = "NO",
    atoms = " N:1  O:1 ",
    thermo = (
       NASA( [  200.00,  1000.00], [  4.218476300E+00,  -4.638976000E-03,
                1.104102200E-05,  -9.336135400E-09,   2.803577000E-12,
                9.844623000E+03,   2.280846400E+00] ),
       NASA( [ 1000.00,  6000.00], [  3.260605600E+00,   1.191104300E-03,
               -4.291704800E-07,   6.945766900E-11,  -4.033609900E-15,
                9.920974600E+03,   6.369302700E+00] )
             ),
    transport = gas_transport(
                     geom = "linear",
                     diam =     3.62,
                     well_depth =    97.53,
                     polar =     1.76,
                     rot_relax =     4.00),
    note = "RUS 78"
       )

species(name = "NO2",
    atoms = " N:1  O:2 ",
    thermo = (
       NASA( [  200.00,  1000.00], [  3.944031200E+00,  -1.585429000E-03,
                1.665781200E-05,  -2.047542600E-08,   7.835056400E-12,
                2.896617900E+03,   6.311991700E+00] ),
       NASA( [ 1000.00,  6000.00], [  4.884754200E+00,   2.172395600E-03,
               -8.280690600E-07,   1.574751000E-10,  -1.051089500E-14,
                2.316498300E+03,  -1.174169500E-01] )
             ),
    transport = gas_transport(
                     geom = "nonlinear",
                     diam =     3.50,
                     well_depth =   200.00,
                     rot_relax =     1.00),
    note = "L 7/88"
       )

species(name = "N2O",
    atoms = " N:2  O:1 ",
    thermo = (
       NASA( [  200.00,  1000.00], [  2.257150200E+00,   1.130472800E-02,
               -1.367131900E-05,   9.681980600E-09,  -2.930718200E-12,
                8.741774400E+03,   1.075799200E+01] ),
       NASA( [ 1000.00,  6000.00], [  4.823072900E+00,   2.627025100E-03,
               -9.585087400E-07,   1.600071200E-10,  -9.775230300E-15,
                8.073404800E+03,  -2.201720700E+00] )
             ),
    transport = gas_transport(
                     geom = "linear",
                     diam =     3.83,
                     well_depth =   232.40,
                     rot_relax =     1.00),
    note = "L 7/88"
       )

species(name = "N2",
    atoms = " N:2 ",
    thermo = (
       NASA( [  300.00,  1000.00], [  3.298677000E+00,   1.408240400E-03,
               -3.963222000E-06,   5.641515000E-09,  -2.444854000E-12,
               -1.020899900E+03,   3.950372000E+00] ),
       NASA( [ 1000.00,  5000.00], [  2.926640000E+00,   1.487976800E-03,
               -5.684760000E-07,   1.009703800E-10,  -6.753351000E-15,
               -9.227977000E+02,   5.980528000E+00] )
             ),
    transport = gas_transport(
                     geom = "linear",
                     diam =     3.62,
                     well_depth =    97.53,
                     polar =     1.76,
                     rot_relax =     4.00),
    note = "121286"
       )

species(name = "AR",
    atoms = " Ar:1 ",
    thermo = (
       NASA( [  300.00,  1000.00], [  2.500000000E+00,   0.000000000E+00,
                0.000000000E+00,   0.000000000E+00,   0.000000000E+00,
               -7.453750000E+02,   4.366000000E+00] ),
       NASA( [ 1000.00,  5000.00], [  2.500000000E+00,   0.000000000E+00,
                0.000000000E+00,   0.000000000E+00,   0.000000000E+00,
               -7.453750000E+02,   4.366000000E+00] )
             ),
    transport = gas_transport(
                     geom = "atom",
                     diam =     3.33,
                     well_depth =   136.50),
    note = "120186"
       )
       
species(name = "O3",
    atoms = " O:3 ",
    thermo = (
       NASA( [  200.00,  1000.00], [  3.407382210E+00,   2.053790630E-03, 
                1.384860520E-05,  -2.233115420E-08,   9.760732260E-12,
                1.586449790E+04,   8.282475800E+00] ),
       NASA( [ 1000.00,  6000.00], [  1.233029140E+01,  -1.193247830E-02, 
                7.987412780E-06,  -1.771945520E-09,   1.260758240E-13,
                1.267558310E+04,  -4.088233740E+01] )
             ),
    transport = gas_transport(
                     geom = "nonlinear",
                     diam =     3.50,
                     well_depth =   200.00,
                     rot_relax =     1.00),
    note = "L 7/88"
       )

species(name = "O^-",
    atoms = " O:1  E:1",
    thermo = (
       NASA( [  298.15,  1000.00], [  2.908059210E+00,  -1.698049070E-03, 
                2.980699560E-06,  -2.438351270E-09,   7.612293130E-13,
                1.141383410E+04,   2.803390840E+00] ),
       NASA( [ 1000.00,  6000.00], [  2.544748680E+00,  -4.666954190E-05, 
                1.849123100E-08,  -3.181591310E-12,   1.989628940E-16,
                1.148227130E+04,   4.521310050E+00] )
             ),
    transport = gas_transport(
                     geom = "atom",
                     diam =     2.75,
                     well_depth =    80.00,
                     polar = 1.424),
    note = "L 1/90"
       )
       
species(name='O3^-',
        atoms='E:1 O:3',
        thermo=(NASA([298.15, 1000.00],
                     [ 1.90241113E+00,  1.56105437E-02, -2.09605956E-05,
                       1.35889864E-08, -3.46558506E-12, -9.16517169E+03,
                       1.51033864E+01]),
                NASA([1000.00, 6000.00],
                     [ 5.95188221E+00,  1.08039003E-03, -4.24642763E-07,
                       7.26564042E-11, -4.52533445E-15, -1.01080130E+04,
                      -4.96701318E+00])),
    transport = gas_transport(
                     geom = "nonlinear",
                     diam =     3.50,
                     well_depth =   200.00,
                     rot_relax =     1.00),
    note = "L 7/88"
       )
       
species(name = "O4^+",
    atoms = " O:4  E:-1 ",
    thermo = (
       NASA( [  298.15,  1000.00], [  4.610171670E+00,  -6.359519520E-03, 
                1.424256240E-05,  -1.209979230E-08,   3.709568780E-12,
                1.397422290E+05,  -2.013268740E-01] ),
       NASA( [ 1000.00,  6000.00], [  3.316759220E+00,   1.115222440E-03, 
               -3.834925560E-07,   5.727846870E-11,  -2.776483810E-15,
                1.398768230E+05,   5.447264760E+00] )
             ),
    transport = gas_transport(
                     geom = "nonlinear",
                     diam =     3.46,
                     well_depth =   107.40,
                     polar =     1.60,
                     rot_relax =     3.80),
    # note = "L 4/89"
       )
       
species(name = "N4^+",
    atoms = " N:4  E:-1 ",
    thermo = (
       NASA( [  298.15,  1000.00], [  4.610171670E+00,  -6.359519520E-03, 
                1.424256240E-05,  -1.209979230E-08,   3.709568780E-12,
                1.397422290E+05,  -2.013268740E-01] ),
       NASA( [ 1000.00,  6000.00], [  3.316759220E+00,   1.115222440E-03, 
               -3.834925560E-07,   5.727846870E-11,  -2.776483810E-15,
                1.398768230E+05,   5.447264760E+00] )
             ),
    transport = gas_transport(
                     geom = "nonlinear",
                     diam =     3.46,
                     well_depth =   107.40,
                     polar =     2.068),
    # note = "L 4/89"
       )

species(name = "N2^+",
    atoms = " N:2  E:-1 ",
    thermo = (
       NASA( [  298.15,  1000.00], [  4.610171670E+00,  -6.359519520E-03, 
                1.424256240E-05,  -1.209979230E-08,   3.709568780E-12,
                1.397422290E+05,  -2.013268740E-01] ),
       NASA( [ 1000.00,  6000.00], [  3.316759220E+00,   1.115222440E-03, 
               -3.834925560E-07,   5.727846870E-11,  -2.776483810E-15,
                1.398768230E+05,   5.447264760E+00] )
             ),
    transport = gas_transport(
                     geom = "linear",
                     diam =     3.46,
                     well_depth =   107.40,
                     polar =     2.068),
    # note = "L 4/89"
       )
     
species(name = "O2^+",
    atoms = " O:2  E:-1 ",
    thermo = (
       NASA( [  298.15,  1000.00], [  4.610171670E+00,  -6.359519520E-03, 
                1.424256240E-05,  -1.209979230E-08,   3.709568780E-12,
                1.397422290E+05,  -2.013268740E-01] ),
       NASA( [ 1000.00,  6000.00], [  3.316759220E+00,   1.115222440E-03, 
               -3.834925560E-07,   5.727846870E-11,  -2.776483810E-15,
                1.398768230E+05,   5.447264760E+00] )
             ),
    transport = gas_transport(
                     geom = "linear",
                     diam =     3.33,
                     well_depth =   136.5,
                     polar =     0.847),
    # note = "L 4/89"
       )
       
species(name = "O2^+N2",
    atoms = " O:2  N:2  E:-1 ",
    thermo = (
       NASA( [  298.15,  1000.00], [  4.610171670E+00,  -6.359519520E-03, 
                1.424256240E-05,  -1.209979230E-08,   3.709568780E-12,
                1.397422290E+05,  -2.013268740E-01] ),
       NASA( [ 1000.00,  6000.00], [  3.316759220E+00,   1.115222440E-03, 
               -3.834925560E-07,   5.727846870E-11,  -2.776483810E-15,
                1.398768230E+05,   5.447264760E+00] )
             ),
    transport = gas_transport(
                     geom = "linear",
                     diam =     3.46,
                     well_depth =   107.40,
                     polar =     1.60,
                     rot_relax =     3.80),
    # note = "L 4/89"
       )
       
species(name='O2^-',
        atoms='E:1 O:2',
        thermo=(NASA([298.15, 1000.00],
                     [ 3.66442522E+00, -9.28741138E-04,  6.45477082E-06,
                      -7.74703380E-09,  2.93332662E-12, -6.87076983E+03,
                       4.35140681E+00]),
                NASA([1000.00, 6000.00],
                     [ 3.95666294E+00,  5.98141823E-04, -2.12133905E-07,
                       3.63267581E-11, -2.24989228E-15, -7.06287229E+03,
                       2.27871017E+00])),
        transport=gas_transport(geom='linear',
                                diam=3.33,
                                well_depth=136.5,
                                polar=1.424),
        note='L4/89')

species(name = "O4^-",
    atoms = " O:4  E:1 ",
    thermo = (
       NASA( [  298.15,  1000.00], [  3.664425220E+00,  -9.287411380E-04, 
                6.454770820E-06,  -7.747033800E-09,   2.933326620E-12,
               -6.870769830E+03,   4.351406740E+00] ),
       NASA( [ 1000.00,  6000.00], [  3.956662940E+00,   5.981418230E-04, 
               -2.121339050E-07,   3.632675810E-11,  -2.249892280E-15,
               -7.062872290E+03,   2.278710100E+00] )
             ),
    transport = gas_transport(
                     geom = "nonlinear",
                     diam =     3.46,
                     well_depth =   107.40,
                     polar =     1.60,
                     rot_relax =     3.80),
    # note = "L 4/89"
       )

species(name='N2(A)',
        atoms='N:2',
        thermo=(NASA([200.00, 1000.00],
                     [ 3.53100528E+00, -1.23660988E-04, -5.02999433E-07,
                       2.43530612E-09, -1.40881235E-12,  7.05413015E+04,
                       2.96747038E+00]),
                NASA([1000.00, 6000.00],
                     [ 2.95257637E+00,  1.39690040E-03, -4.92631603E-07,
                       7.86010195E-11, -4.60755204E-15,  7.06665961E+04,
                       5.87188762E+00])),
    transport = gas_transport(
                     geom = "linear",
                     diam =     3.62,
                     well_depth =    97.53,
                     polar =     1.76,
                     rot_relax =     4.00),
    note = "121286"
        )

species(name='N2(B)',
    atoms = " N:2 ",
    thermo = (
       NASA( [  300.00,  1000.00], [  3.298677000E+00,   1.408240400E-03,
               -3.963222000E-06,   5.641515000E-09,  -2.444854000E-12,
               -1.020899900E+03,   3.950372000E+00] ),
       NASA( [ 1000.00,  5000.00], [  2.926640000E+00,   1.487976800E-03,
               -5.684760000E-07,   1.009703800E-10,  -6.753351000E-15,
               -9.227977000E+02,   5.980528000E+00] )
             ),
    transport = gas_transport(
                     geom = "linear",
                     diam =     3.62,
                     well_depth =    97.53,
                     polar =     1.76,
                     rot_relax =     4.00),
    note = "121286"
       )

species(name='N2(C)',
    atoms = " N:2 ",
    thermo = (
       NASA( [  300.00,  1000.00], [  3.298677000E+00,   1.408240400E-03,
               -3.963222000E-06,   5.641515000E-09,  -2.444854000E-12,
               -1.020899900E+03,   3.950372000E+00] ),
       NASA( [ 1000.00,  5000.00], [  2.926640000E+00,   1.487976800E-03,
               -5.684760000E-07,   1.009703800E-10,  -6.753351000E-15,
               -9.227977000E+02,   5.980528000E+00] )
             ),
    transport = gas_transport(
                     geom = "linear",
                     diam =     3.62,
                     well_depth =    97.53,
                     polar =     1.76,
                     rot_relax =     4.00),
    note = "121286"
       )

species(name='N2(ap)',
    atoms = " N:2 ",
    thermo = (
       NASA( [  300.00,  1000.00], [  3.298677000E+00,   1.408240400E-03,
               -3.963222000E-06,   5.641515000E-09,  -2.444854000E-12,
               -1.020899900E+03,   3.950372000E+00] ),
       NASA( [ 1000.00,  5000.00], [  2.926640000E+00,   1.487976800E-03,
               -5.684760000E-07,   1.009703800E-10,  -6.753351000E-15,
               -9.227977000E+02,   5.980528000E+00] )
             ),
    transport = gas_transport(
                     geom = "linear",
                     diam =     3.62,
                     well_depth =    97.53,
                     polar =     1.76,
                     rot_relax =     4.00),
    note = "121286"
       )

species(name = "O(1D)",
    atoms = " O:1 ",
    thermo = (
       NASA( [  200.00,  1000.00], [  3.168267100E+00,  -3.279318840E-03,
                6.643063960E-06,  -6.128066240E-09,   2.112659710E-12,
                2.912225920E+04,   2.051933460E+00] ),
       NASA( [ 1000.00,  3500.00], [  2.569420780E+00,  -8.597411370E-05,
                4.194845890E-08,  -1.001777990E-11,   1.228336910E-15,
                2.921757910E+04,   4.784338640E+00] )
             ),
    transport = gas_transport(
                     geom = "atom",
                     diam =     2.75,
                     well_depth =    80.00),
    note = "L 1/90"
       )

species(name = 'E',
    atoms = ' E:1 ',
    thermo = (
       NASA( [  200.00,  1000.00], [  2.500000000E+00,   0.000000000E+00, 
                0.000000000E+00,   0.000000000E+00,   0.000000000E+00,
               -7.453750000E+02,  -1.172469020E+01] ),
       NASA( [ 1000.00,  6000.00], [  2.500000000E+00,   0.000000000E+00, 
                0.000000000E+00,   0.000000000E+00,   0.000000000E+00,
               -7.453750000E+02,  -1.172469020E+01] )
             ),
        transport=gas_transport(geom='atom',
                                diam=2.05,
                                well_depth=145.0,
                                polar=0.667),
     note = 'The transport parameters are not used in IonGasTransport')

#-------------------------------------------------------------------------------
#  Reaction data
#-------------------------------------------------------------------------------
#R1
#reaction('N2 + E => N2(A) + E', [1.0, 0.0, 0.0])

#R2
#reaction('N2 + E => N2(B) + E', [1.0, 0.0, 0.0])

#R3
#reaction('N2 + E => N2(ap) + E', [1.0, 0.0, 0.0])

#R4
#reaction('N2 + E => N2(C) + E', [1.0, 0.0, 0.0])

#R5
#reaction('O2 + E => O + O + E', [1.0, 0.0, 0.0])

#R6
#reaction('O2 + E => O + O(1D) + E', [1.0, 0.0, 0.0])

#R7
#reaction('N2 + E => N2^+ + E + E', [1.0, 0.0, 0.0])

#R8
#reaction('O2 + E => O2^+ E + E', [1.0, 0.0, 0.0])

#R9
#reaction('O2 + E => O^- + O', [1.0, 0.0, 0.0])

#R10 Kossyi (40)
electron_reaction('O2^+ + E => O + O', [6e-5, -1.0, 0.0])

#R11 Kossyi (45)
#reaction('E + O2 + O2 => O2^- + O2', [4.2e-27, -1.0, 600])
electron_reaction('E + O2 + O2 => O2^- + O2', [4.2E-27, -1.0, -100, 700])
#electron_reaction('E + O2 + N2 => O2^- + N2', [9.63E-27, -2.0, -1430, 1500])

#R12  Kossyi (66)
#reaction('O2^- + O => O3 + E', [1.5e-10, 0.0, 0.0])

#R13 Kossyi (68)
reaction('O^- + O => O2 + E', [5e-10, 0.0, 0.0])

#R14 Kossyi (70)
reaction('O3^- + O => O2 + O2 + E', [3e-10, 0.0, 0.0])

#R15 Kossyi (56)
reaction('O2^- + N2 => O2 + E + N2', [1.097e-13, 0.5, 4990])

#R16 Kossyi (57)
reaction('O2^- + O2 => O2 + E + O2', [1.559e-11, 0.5, 5590])

#R17 Kossyi (82)
reaction('O3 + O => O2 + O2', [2e-11, 0.0, 2300])

#R18 Kossyi (94) (95)
reaction('O + O2 + N2 => O3 + N2', [5.58e-29, -2.0, 0.0])
reaction('O + O2 + O2 => O3 + O2', [8.615e-31, -1.25, 0.0])

#R19 Kossyi (100)
reaction('N2(A) + O2 => N2 + O + O', [2.54e-12, 0.0, 0.0])

#R20 Kossyi (101)
reaction('N2(A) + O2 => N2O + O', [7.8e-14, 0.0, 0.0])

#R21 Kossyi (106) The product is actually O2(a, b)
reaction('N2(A) + O2 => N2 + O2', [1.29e-12, 0.0, 0.0])

#R22 Kossyi (110)
reaction('N2(B) + N2 => N2(A) + N2', [5e-11, 0.0, 0.0])

#R23 Kossyi (113)
reaction('N2(B) + O2 => N2 + O + O', [3e-10, 0.0, 0.0])

#R24 Kossyi (114)
reaction('N2(ap) + N2 => N2(B) + N2', [2e-13, 0.0, 0.0])

#R25 Kossyi (115)
reaction('N2(ap) + O2 => N2 + O + O', [2.8e-11, 0.0, 0.0])

#R26 Kossyi (117)
reaction('N2(C) => N2(B)', [3e+7, 0.0, 0.0])

#R27 Kossyi (118) 
reaction('N2(C) + N2 => N2(ap) + N2', [1e-11, 0.0, 0.0])

#R28 Kossyi (119) The product is actually O(1S)
reaction('N2(C) + O2 => N2 + O + O(1D)', [3e-10, 0.0, 0.0])

#R29 Kossyi (144)
reaction('O(1D) + N2 => O + N2', [1.8e-11, 0.0, -107])

#R30 Kossyi (145) The product is actually O2(b)
reaction('O(1D) + O2 => O + O2', [2.56e-11, 0.0, -67])

#R31 Kossyi (165)
reaction('N2^+ + N2 + N2 => N4^+ + N2', [5e-29, 0.0, 0.0]) 

#R32 Kossyi (168)
reaction('O2^+ + N2 + N2 => O2^+N2 + N2', [8.1e-26, -2.0, 0.0])

#R33 Kossyi (167)
reaction('O2^+ + O2 + O2 => O4^+ + O2', [2.028e-22, -3.2, 0.0])

#R34 Kossyi (222)
reaction('N4^+ + O2 => O2^+ + N2 + N2', [2.5e-10, 0.0, 0.0])

#R35 Kossyi (226)
reaction('O4^+ + N2 => O2^+N2 + O2', [2.957e-18, 2.5, 2650])

#R36 Kossyi (227)
reaction('O4^+ + O2 => O2^+ + O2 + O2', [2.673e+4, -4.0, 5030])

#R37 Kossyi (231)
reaction('O2^+N2 + N2 => O2^+ + N2 + N2', [1.480e+7, -5.3, 2357])

#R38 Kossyi (232)
reaction('O2^+N2 + O2 => O4^+ + N2', [1e-9, 0.0, 0.0])

#R39 Kossyi (234)
three_body_reaction('O2^- + O2 + M => O4^- + M', [1.05e-28, -1.0, 0.0],
       efficiencies = "N2:1.0 O2:1.0")

#R40 Kossyi (237)
reaction('O2^- + O => O2 + O^-', [3.3e-10, 0.0, 0.0]) 

#R41 Kossyi (247)
reaction('O3^- + O => O2^- + O2', [3.2e-10, 0.0, 0.0])

#R42 Kossyi (235)
three_body_reaction('O^- + O2 + M => O3^- + M', [3.3e-28, -1.0, 0.0],
       efficiencies = "N2:1.0 O2:1.0")

#R43 Kossyi  (262)
three_body_reaction('O4^- + M => O2^- + O2 + M', [1e-10, 0.0, 1044],
       efficiencies = "N2:1.0 O2:1.0")

#R44 Kossyi 2.7 Recombination of positive and negative ions (type 1)
reaction('O2^- + O2^+ => O2 + O2', [3.464e-6, -0.5, 0.0])

#R45 Kossyi 2.7 Recombination of positive and negative ions (type 1)
reaction('O^- + O2^+ => O + O2', [3.464e-6, -0.5, 0.0])

#R46 Kossyi 2.7 Recombination of positive and negative ions (type 1)
reaction('O3^- + O2^+ => O3 + O2', [3.464e-6, -0.5, 0.0])

#R47 Kossyi 2.7 Recombination of positive and negative ions (type 2&3)
reaction('O2^- + O2^+ => O2 + O + O', [1e-7, 0.0, 0.0])

#R48 Kossyi 2.7 Recombination of positive and negative ions (type 2&3)
reaction('O3^- + O2^+ => O3 + O + O', [1e-7, 0.0, 0.0])

#R49 Kossyi 2.7 Recombination of positive and negative ions (type 5)
three_body_reaction('O2^- + O2^+ + M => O2 + O2 + M', [3.118e-19, -2.5, 0.0],
       efficiencies = "N2:1.0 O2:1.0, N:1.0, O:1.0")

